2015CitenelArticle/TPCD205.m
function mpc = TPCD205

%% MATPOWER Case Format : Version 2
mpc.version = '2';

%%-----  Power Flow Data  -----%%
%% system MVA base
mpc.baseMVA = 1;

%% bus data
%	bus_i	type	Pd	Qd	Gs	Bs	area	Vm	Va	baseKV	zone	Vmax	Vmin
mpc.bus = [
	117043357	1	0	0	0	0	0	1	0	13.8	0	1.1	0.9;
	125895844	1	0	0	0	0	0	1	0	13.8	0	1.1	0.9;
	125895886	1	0	0	0	0	0	1	0	13.8	0	1.1	0.9;
	125895963	1	0	0	0	0	0	1	0	13.8	0	1.1	0.9;
	125895970	1	0	0	0	0	0	1	0	13.8	0	1.1	0.9;
	125896054	1	0	0	0	0	0	1	0	13.8	0	1.1	0.9;
	125896117	1	0	0	0	0	0	1	0	13.8	0	1.1	0.9;
	125899932	1	0	0	0	0	0	1	0	13.8	0	1.1	0.9;
	125900009	1	0	0	0	0	0	1	0	13.8	0	1.1	0.9;
	125900016	1	0	0	0	0	0	1	0	13.8	0	1.1	0.9;
	125900023	1	0	0	0	0	0	1	0	13.8	0	1.1	0.9;
	125900051	1	0	0	0	0	0	1	0	13.8	0	1.1	0.9;
	125900058	1	0	0	0	0	0	1	0	13.8	0	1.1	0.9;
	125900072	1	0	0	0	0	0	1	0	13.8	0	1.1	0.9;
	125900079	1	0.0396964586	0.0138389737	0	0	0	1	0	13.8	0	1.1	0.9;
	125900156	1	0	0	0	0	0	1	0	13.8	0	1.1	0.9;
	125900191	1	0	0	0	0	0	1	0	13.8	0	1.1	0.9;
	125900282	1	0	0	0	0	0	1	0	13.8	0	1.1	0.9;
	125900289	1	0.0305794081	0.00927764386	0	0	0	1	0	13.8	0	1.1	0.9;
	125900296	1	0	0	0	0	0	1	0	13.8	0	1.1	0.9;
	125900345	1	0	0	0	0	0	1	0	13.8	0	1.1	0.9;
	125900520	3	0	0	0	0	0	1	0	13.8	0	1.1	0.9;
	125900527	1	0	0	0	0	0	1	0	13.8	0	1.1	0.9;
	125900534	1	0	0	0	0	0	1	0	13.8	0	1.1	0.9;
	125907485	1	0	0	0	0	0	1	0	13.8	0	1.1	0.9;
	125907499	1	0	0	0	0	0	1	0	13.8	0	1.1	0.9;
	125907506	1	0	0	0	0	0	1	0	13.8	0	1.1	0.9;
	125907513	1	0	0	0	0	0	1	0	13.8	0	1.1	0.9;
	125907520	1	0.0463791376	0.00816621038	0	0	0	1	0	13.8	0	1.1	0.9;
	125907527	1	0	0	0	0	0	1	0	13.8	0	1.1	0.9;
	125907534	1	0	0	0	0	0	1	0	13.8	0	1.1	0.9;
	125907541	1	0.0505601452	0.0134921859	0	0	0	1	0	13.8	0	1.1	0.9;
	125907548	1	0	0	0	0	0	1	0	13.8	0	1.1	0.9;
	125907555	1	0	0	0	0	0	1	0	13.8	0	1.1	0.9;
	125907562	1	0	0	0	0	0	1	0	13.8	0	1.1	0.9;
	125907569	1	0	0	0	0	0	1	0	13.8	0	1.1	0.9;
	125907576	1	0.028900311	0.0119295002	0	0	0	1	0	13.8	0	1.1	0.9;
	125907583	1	0.0271954964	0.00592169902	0	0	0	1	0	13.8	0	1.1	0.9;
	125907590	1	0	0	0	0	0	1	0	13.8	0	1.1	0.9;
	125907597	1	0	0	0	0	0	1	0	13.8	0	1.1	0.9;
	125907604	1	0	0	0	0	0	1	0	13.8	0	1.1	0.9;
	125907611	1	0	0	0	0	0	1	0	13.8	0	1.1	0.9;
	125907618	1	0	0	0	0	0	1	0	13.8	0	1.1	0.9;
	125907625	1	0.0407864561	0.0130572027	0	0	0	1	0	13.8	0	1.1	0.9;
	125907632	1	0.0318284081	0.00995837545	0	0	0	1	0	13.8	0	1.1	0.9;
	125907639	1	0	0	0	0	0	1	0	13.8	0	1.1	0.9;
	125907646	1	0	0	0	0	0	1	0	13.8	0	1.1	0.9;
	125907653	1	0	0	0	0	0	1	0	13.8	0	1.1	0.9;
	125907660	1	0	0	0	0	0	1	0	13.8	0	1.1	0.9;
	125907667	1	0	0	0	0	0	1	0	13.8	0	1.1	0.9;
	125907730	1	0	0	0	0	0	1	0	13.8	0	1.1	0.9;
	125907737	1	0	0	0	0	0	1	0	13.8	0	1.1	0.9;
	125907765	1	0	0	0	0	0	1	0	13.8	0	1.1	0.9;
	125907772	1	0.0235085727	0.00848131633	0	0	0	1	0	13.8	0	1.1	0.9;
	125907779	1	0	0	0	0	0	1	0	13.8	0	1.1	0.9;
	125907786	1	0	0	0	0	0	1	0	13.8	0	1.1	0.9;
	125907793	1	0	0	0	0	0	1	0	13.8	0	1.1	0.9;
	125907800	1	0	0	0	0	0	1	0	13.8	0	1.1	0.9;
	125907807	1	0.023863788	0.00587227333	0	0	0	1	0	13.8	0	1.1	0.9;
	125907814	1	0.0330084688	0.0123850338	0	0	0	1	0	13.8	0	1.1	0.9;
	125907933	1	0	0	0	0	0	1	0	13.8	0	1.1	0.9;
	125907954	1	0	0	0	0	0	1	0	13.8	0	1.1	0.9;
	125907968	1	0	0	0	0	0	1	0	13.8	0	1.1	0.9;
	125907975	1	0	0	0	0	0	1	0	13.8	0	1.1	0.9;
	125907982	1	0.0536864702	0.0155018426	0	0	0	1	0	13.8	0	1.1	0.9;
	125907989	1	0.0429315802	0.0170799411	0	0	0	1	0	13.8	0	1.1	0.9;
	125907996	1	0	0	0	0	0	1	0	13.8	0	1.1	0.9;
	125908003	1	0.0471564923	0.0137773225	0	0	0	1	0	13.8	0	1.1	0.9;
	125908010	1	0	0	0	0	0	1	0	13.8	0	1.1	0.9;
	125908017	1	0	0	0	0	0	1	0	13.8	0	1.1	0.9;
	125908024	1	0	0	0	0	0	1	0	13.8	0	1.1	0.9;
	125908031	1	0	0	0	0	0	1	0	13.8	0	1.1	0.9;
	125908038	1	0.0160884817	0.0042333799	0	0	0	1	0	13.8	0	1.1	0.9;
	125908045	1	0	0	0	0	0	1	0	13.8	0	1.1	0.9;
	125908052	1	0	0	0	0	0	1	0	13.8	0	1.1	0.9;
	125908059	1	0.0238669301	0.00587398587	0	0	0	1	0	13.8	0	1.1	0.9;
	125908066	1	0	0	0	0	0	1	0	13.8	0	1.1	0.9;
	125908073	1	0	0	0	0	0	1	0	13.8	0	1.1	0.9;
	125908080	1	0	0	0	0	0	1	0	13.8	0	1.1	0.9;
	125908087	1	0.0298145195	0.00772951464	0	0	0	1	0	13.8	0	1.1	0.9;
	125908094	1	0	0	0	0	0	1	0	13.8	0	1.1	0.9;
	125908101	1	0.0126278605	0.00289760469	0	0	0	1	0	13.8	0	1.1	0.9;
	125908108	1	0	0	0	0	0	1	0	13.8	0	1.1	0.9;
	125908136	1	0	0	0	0	0	1	0	13.8	0	1.1	0.9;
	125908150	1	0	0	0	0	0	1	0	13.8	0	1.1	0.9;
	125908157	1	0	0	0	0	0	1	0	13.8	0	1.1	0.9;
	125908199	1	0	0	0	0	0	1	0	13.8	0	1.1	0.9;
	125908206	1	0	0	0	0	0	1	0	13.8	0	1.1	0.9;
	125908213	1	0	0	0	0	0	1	0	13.8	0	1.1	0.9;
	125908234	1	0	0	0	0	0	1	0	13.8	0	1.1	0.9;
	125908255	1	0	0	0	0	0	1	0	13.8	0	1.1	0.9;
	125908262	1	0	0	0	0	0	1	0	13.8	0	1.1	0.9;
	125908269	1	0	0	0	0	0	1	0	13.8	0	1.1	0.9;
	125908276	1	0	0	0	0	0	1	0	13.8	0	1.1	0.9;
	125908283	1	0	0	0	0	0	1	0	13.8	0	1.1	0.9;
	125908290	1	0.00231889796	0.00126384885	0	0	0	1	0	13.8	0	1.1	0.9;
	125908297	1	0	0	0	0	0	1	0	13.8	0	1.1	0.9;
	125908304	1	0	0	0	0	0	1	0	13.8	0	1.1	0.9;
	125908311	1	0	0	0	0	0	1	0	13.8	0	1.1	0.9;
	125908318	1	0.000386482994	0.000210641476	0	0	0	1	0	13.8	0	1.1	0.9;
	125908325	1	0	0	0	0	0	1	0	13.8	0	1.1	0.9;
	125908332	1	0	0	0	0	0	1	0	13.8	0	1.1	0.9;
	125908339	1	0	0	0	0	0	1	0	13.8	0	1.1	0.9;
	125908346	1	0	0	0	0	0	1	0	13.8	0	1.1	0.9;
	125908353	1	0	0	0	0	0	1	0	13.8	0	1.1	0.9;
	125908360	1	0.000666133291	0.000363056852	0	0	0	1	0	13.8	0	1.1	0.9;
	125908367	1	0	0	0	0	0	1	0	13.8	0	1.1	0.9;
	125908374	1	0	0	0	0	0	1	0	13.8	0	1.1	0.9;
	125908381	1	0	0	0	0	0	1	0	13.8	0	1.1	0.9;
	125908388	1	0	0	0	0	0	1	0	13.8	0	1.1	0.9;
	125908395	1	0	0	0	0	0	1	0	13.8	0	1.1	0.9;
	125908402	1	0	0	0	0	0	1	0	13.8	0	1.1	0.9;
	125908409	1	0.000251371053	0.000137002586	0	0	0	1	0	13.8	0	1.1	0.9;
	125908416	1	0	0	0	0	0	1	0	13.8	0	1.1	0.9;
	125908423	1	0	0	0	0	0	1	0	13.8	0	1.1	0.9;
	125908430	1	0	0	0	0	0	1	0	13.8	0	1.1	0.9;
	125908437	1	0	0	0	0	0	1	0	13.8	0	1.1	0.9;
	125908444	1	0	0	0	0	0	1	0	13.8	0	1.1	0.9;
	125908451	1	0.000397480478	0.000216635339	0	0	0	1	0	13.8	0	1.1	0.9;
	125908458	1	0	0	0	0	0	1	0	13.8	0	1.1	0.9;
	125908465	1	0	0	0	0	0	1	0	13.8	0	1.1	0.9;
	125908500	1	0	0	0	0	0	1	0	13.8	0	1.1	0.9;
	125908507	1	0	0	0	0	0	1	0	13.8	0	1.1	0.9;
	125908514	1	0.000744686745	0.00040587016	0	0	0	1	0	13.8	0	1.1	0.9;
	125908521	1	0	0	0	0	0	1	0	13.8	0	1.1	0.9;
	125908528	1	0.000249799984	0.00013614632	0	0	0	1	0	13.8	0	1.1	0.9;
	125908535	1	0	0	0	0	0	1	0	13.8	0	1.1	0.9;
	125908542	1	0.000369201234	0.000201222548	0	0	0	1	0	13.8	0	1.1	0.9;
	125908549	1	0.000673988636	0.000367338183	0	0	0	1	0	13.8	0	1.1	0.9;
	125908556	1	0	0	0	0	0	1	0	13.8	0	1.1	0.9;
	125908563	1	0.000125685527	6.85012929e-05	0	0	0	1	0	13.8	0	1.1	0.9;
	125908570	1	0	0	0	0	0	1	0	13.8	0	1.1	0.9;
	125908577	1	0	0	0	0	0	1	0	13.8	0	1.1	0.9;
	125908584	1	0	0	0	0	0	1	0	13.8	0	1.1	0.9;
	125908591	1	0	0	0	0	0	1	0	13.8	0	1.1	0.9;
	125908598	1	0.000538876695	0.000293699293	0	0	0	1	0	13.8	0	1.1	0.9;
	125908605	1	0	0	0	0	0	1	0	13.8	0	1.1	0.9;
	125908612	1	0.00041004903	0.000223485468	0	0	0	1	0	13.8	0	1.1	0.9;
	125908619	1	0	0	0	0	0	1	0	13.8	0	1.1	0.9;
	125908626	1	0	0	0	0	0	1	0	13.8	0	1.1	0.9;
	125908633	1	0	0	0	0	0	1	0	13.8	0	1.1	0.9;
	125908640	1	0	0	0	0	0	1	0	13.8	0	1.1	0.9;
	125908647	1	0	0	0	0	0	1	0	13.8	0	1.1	0.9;
	125908654	1	0.000502742106	0.000274005172	0	0	0	1	0	13.8	0	1.1	0.9;
	125908661	1	0	0	0	0	0	1	0	13.8	0	1.1	0.9;
	125908668	1	0	0	0	0	0	1	0	13.8	0	1.1	0.9;
	125908675	1	0.000463465379	0.000252598518	0	0	0	1	0	13.8	0	1.1	0.9;
	125908682	1	0	0	0	0	0	1	0	13.8	0	1.1	0.9;
	125908689	1	0	0	0	0	0	1	0	13.8	0	1.1	0.9;
	125908696	1	0.00070226788	0.000382750974	0	0	0	1	0	13.8	0	1.1	0.9;
	125908703	1	0.000120972319	6.59324944e-05	0	0	0	1	0	13.8	0	1.1	0.9;
	125908710	1	0	0	0	0	0	1	0	13.8	0	1.1	0.9;
	125908717	1	0	0	0	0	0	1	0	13.8	0	1.1	0.9;
	125908724	1	0	0	0	0	0	1	0	13.8	0	1.1	0.9;
	125908731	1	0	0	0	0	0	1	0	13.8	0	1.1	0.9;
	125908738	1	0	0	0	0	0	1	0	13.8	0	1.1	0.9;
	125908745	1	3.45635198e-05	1.88378555e-05	0	0	0	1	0	13.8	0	1.1	0.9;
	125908752	1	0.000208952188	0.000113883399	0	0	0	1	0	13.8	0	1.1	0.9;
	125908766	1	0	0	0	0	0	1	0	13.8	0	1.1	0.9;
	125908815	1	0	0	0	0	0	1	0	13.8	0	1.1	0.9;
	125908829	1	0	0	0	0	0	1	0	13.8	0	1.1	0.9;
	125908850	1	0	0	0	0	0	1	0	13.8	0	1.1	0.9;
	125908857	1	0	0	0	0	0	1	0	13.8	0	1.1	0.9;
	125908864	1	0	0	0	0	0	1	0	13.8	0	1.1	0.9;
	125908871	1	0.000155535839	8.477035e-05	0	0	0	1	0	13.8	0	1.1	0.9;
	125908878	1	0	0	0	0	0	1	0	13.8	0	1.1	0.9;
	125908885	1	0.00180201624	0.000982137287	0	0	0	1	0	13.8	0	1.1	0.9;
	125908892	1	0	0	0	0	0	1	0	13.8	0	1.1	0.9;
	125908899	1	0	0	0	0	0	1	0	13.8	0	1.1	0.9;
	125908906	1	0.00112645653	0.000613942838	0	0	0	1	0	13.8	0	1.1	0.9;
	125908927	1	0	0	0	0	0	1	0	13.8	0	1.1	0.9;
	125908934	1	0.00128827665	0.000702138252	0	0	0	1	0	13.8	0	1.1	0.9;
	125908941	1	0	0	0	0	0	1	0	13.8	0	1.1	0.9;
	125908948	1	0	0	0	0	0	1	0	13.8	0	1.1	0.9;
	125908955	1	0	0	0	0	0	1	0	13.8	0	1.1	0.9;
	125908962	1	0.00022309181	0.000121589795	0	0	0	1	0	13.8	0	1.1	0.9;
	125908969	1	0	0	0	0	0	1	0	13.8	0	1.1	0.9;
	125908976	1	0	0	0	0	0	1	0	13.8	0	1.1	0.9;
	125908983	1	0	0	0	0	0	1	0	13.8	0	1.1	0.9;
	125908990	1	0	0	0	0	0	1	0	13.8	0	1.1	0.9;
	125908997	1	0	0	0	0	0	1	0	13.8	0	1.1	0.9;
	125909004	1	0	0	0	0	0	1	0	13.8	0	1.1	0.9;
	125909011	1	0	0	0	0	0	1	0	13.8	0	1.1	0.9;
	125909018	1	0	0	0	0	0	1	0	13.8	0	1.1	0.9;
	125909025	1	0	0	0	0	0	1	0	13.8	0	1.1	0.9;
	125909032	1	0	0	0	0	0	1	0	13.8	0	1.1	0.9;
	125909039	1	0	0	0	0	0	1	0	13.8	0	1.1	0.9;
	125909046	1	0.000754113159	0.000411007757	0	0	0	1	0	13.8	0	1.1	0.9;
	125909053	1	0	0	0	0	0	1	0	13.8	0	1.1	0.9;
	125909060	1	0	0	0	0	0	1	0	13.8	0	1.1	0.9;
	125909067	1	0	0	0	0	0	1	0	13.8	0	1.1	0.9;
	125909074	1	0	0	0	0	0	1	0	13.8	0	1.1	0.9;
	125909081	1	0	0	0	0	0	1	0	13.8	0	1.1	0.9;
	125909088	1	0.000400622616	0.000218347871	0	0	0	1	0	13.8	0	1.1	0.9;
	125909095	1	0	0	0	0	0	1	0	13.8	0	1.1	0.9;
	125909102	1	0	0	0	0	0	1	0	13.8	0	1.1	0.9;
	125909109	1	0	0	0	0	0	1	0	13.8	0	1.1	0.9;
	125909116	1	0	0	0	0	0	1	0	13.8	0	1.1	0.9;
	125909123	1	0	0	0	0	0	1	0	13.8	0	1.1	0.9;
	125909130	1	0	0	0	0	0	1	0	13.8	0	1.1	0.9;
...
];

%% generator data
%	bus	Pg	Qg	Qmax	Qmin	Vg	mBase	status	Pmax	Pmin	Pc1	Pc2	Qc1min	Qc1max	Qc2min	Qc2max	ramp_agc	ramp_10	ramp_30	ramp_q	apf
mpc.gen = [
	125900520	5	0	2.5	-2.5	1	1	1	10	5	0	0	0	0	0	0	0	0	0	0	0;
];

%% branch data
%	fbus	tbus	r	x	b	rateA	rateB	rateC	ratio	angle	status	angmin	angmax
mpc.branch = [
	125907506	125907513	9.00723161e-05	6.05003384e-05	-2.62549884e-09	0.001656	0.002484	0.0027738	1	0	1	-360	360;
	125907534	125907562	2.62549884e-07	2.62549884e-07	-2.62549884e-09	6	8	10	1	0	1	-360	360;
	125907597	125907618	2.62549884e-07	2.62549884e-07	-2.62549884e-09	6	8	10	1	0	1	-360	360;
	125907779	125907786	2.03621397e-05	1.36769697e-05	-2.62549884e-09	0.001656	0.002484	0.0027738	1	0	1	-360	360;
	125908017	125908024	1.8026916e-05	1.2108432e-05	-2.62549884e-09	0.001656	0.002484	0.0027738	1	0	1	-360	360;
	125907954	125908010	2.62549884e-07	2.62549884e-07	-2.62549884e-09	6	8	10	1	0	1	-360	360;
	125908080	125908087	0.000230627802	0.000101435313	-2.62549884e-09	0.0012282	0.0018492	0.0020562	1	0	1	-360	360;
	125908101	125908108	0.000155311405	6.83094618e-05	-2.62549884e-09	0.0012282	0.0018492	0.0020562	1	0	1	-360	360;
	125908304	125908318	0.00133486691	0.000406394804	-2.62549884e-09	0.0009246	0.00138	0.0015456	1	0	1	-360	360;
	125908283	125908290	0.00046046741	0.000515033283	-2.62549884e-09	0.0006624	0.0013662	0.0015318	1	0	1	-360	360;
	125908381	125908395	0.0111207663	0.0033856721	-2.62549884e-09	0.0009246	0.00138	0.0015456	1	0	1	-360	360;
	125908332	125908339	2.62549884e-07	2.62549884e-07	-2.62549884e-09	6	8	10	1	0	1	-360	360;
	125908521	125908528	0.000422492744	0.000185821846	-2.62549884e-09	0.0012282	0.0018492	0.0020562	1	0	1	-360	360;
	125908570	125908584	0.00481361832	0.00146548653	-2.62549884e-09	0.0009246	0.00138	0.0015456	1	0	1	-360	360;
	125908591	125908598	0.000609435003	0.000681653694	-2.62549884e-09	0.0006624	0.0013662	0.0015318	1	0	1	-360	360;
	125908633	125908640	0.00201479033	0.000613394726	-2.62549884e-09	0.0009246	0.00138	0.0015456	1	0	1	-360	360;
	125908647	125908661	0.00383611672	0.00116789014	-2.62549884e-09	0.0009246	0.00138	0.0015456	1	0	1	-360	360;
	125908710	125908717	0.00446410512	0.00135907866	-2.62549884e-09	0.0009246	0.00138	0.0015456	1	0	1	-360	360;
	125908717	125908724	0.000408448943	0.000456850573	-2.62549884e-09	0.0006624	0.0013662	0.0015318	1	0	1	-360	360;
	125908864	125908878	0.0102431329	0.00311848017	-2.62549884e-09	0.0009246	0.00138	0.0015456	1	0	1	-360	360;
	125909095	125909102	0.00803130837	0.00244509919	-2.62549884e-09	0.0009246	0.00138	0.0015456	1	0	1	-360	360;
	125909123	125909130	0.00414182219	0.00126096093	-2.62549884e-09	0.0009246	0.00138	0.0015456	1	0	1	-360	360;
	125909060	125909067	2.62549884e-07	2.62549884e-07	-2.62549884e-09	6	8	10	1	0	1	-360	360;
	125909179	125909207	0.000647337779	0.000724047988	-2.62549884e-09	0.0006624	0.0013662	0.0015318	1	0	1	-360	360;
	125909221	125909228	0.000666689958	0.000745693421	-2.62549884e-09	0.0006624	0.0013662	0.0015318	1	0	1	-360	360;
	125909333	125909340	0.00342958865	0.00104412432	-2.62549884e-09	0.0009246	0.00138	0.0015456	1	0	1	-360	360;
	125909340	125909347	0.000227888326	0.000254893333	-2.62549884e-09	0.0006624	0.0013662	0.0015318	1	0	1	-360	360;
	125908990	125909382	2.62549884e-07	2.62549884e-07	-2.62549884e-09	6	8	10	1	0	1	-360	360;
	125908346	125909438	2.62549884e-07	2.62549884e-07	-2.62549884e-09	6	8	10	1	0	1	-360	360;
	125909529	125909536	2.62549884e-07	2.62549884e-07	-2.62549884e-09	6	8	10	1	0	1	-360	360;
	125909578	125909585	0.00179619156	0.000546843219	-2.62549884e-09	0.0009246	0.00138	0.0015456	1	0	1	-360	360;
	125909655	125909662	0.00745939145	0.00227098141	-2.62549884e-09	0.0009246	0.00138	0.0015456	1	0	1	-360	360;
	125909795	125909802	0.00353516393	0.00107626629	-2.62549884e-09	0.0009246	0.00138	0.0015456	1	0	1	-360	360;
	125909809	125909816	0.00132116055	0.000402221959	-2.62549884e-09	0.0009246	0.00138	0.0015456	1	0	1	-360	360;
	125909872	125909900	0.00430041064	0.00130924254	-2.62549884e-09	0.0009246	0.00138	0.0015456	1	0	1	-360	360;
	125910194	125910201	0.0090215179	0.00274656445	-2.62549884e-09	0.0009246	0.00138	0.0015456	1	0	1	-360	360;
	125910376	125910390	0.00172415213	0.000524911107	-2.62549884e-09	0.0009246	0.00138	0.0015456	1	0	1	-360	360;
	125910460	125910474	0.00851207213	0.00259146576	-2.62549884e-09	0.0009246	0.00138	0.0015456	1	0	1	-360	360;
	125910509	125910516	0.00183884649	0.000559829339	-2.62549884e-09	0.0009246	0.00138	0.0015456	1	0	1	-360	360;
	125908255	125910551	2.62549884e-07	2.62549884e-07	-2.62549884e-09	6	8	10	1	0	1	-360	360;
	125900534	117043357	7.55967246e-06	7.9913913e-06	-2.62549884e-09	0.0037812	0.005658	0.0062928	1	0	1	-360	360;
	125907520	125907527	0.000611691359	0.00041086469	-2.62549884e-09	0.001656	0.002484	0.0027738	1	0	1	-360	360;
	125907562	125907569	0.000498180922	0.000219111215	-2.62549884e-09	0.0012282	0.0018492	0.0020562	1	0	1	-360	360;
	125907653	85575011	1.89364012e-05	1.27193208e-05	-2.62549884e-09	0.001656	0.002484	0.0027738	1	0	1	-360	360;
	125907996	125908003	0.00101865862	0.00113937074	-2.62549884e-09	0.0006624	0.0013662	0.0015318	1	0	1	-360	360;
	125908262	125908269	0.00429766102	0.00130840543	-2.62549884e-09	0.0009246	0.00138	0.0015456	1	0	1	-360	360;
	125908269	125908283	0.000365395487	0.000111243171	-2.62549884e-09	0.0009246	0.00138	0.0015456	1	0	1	-360	360;
	125908269	125908276	0.0130219929	0.00396449282	-2.62549884e-09	0.0009246	0.00138	0.0015456	1	0	1	-360	360;
	125908325	125908332	0.000778960735	0.000237151429	-2.62549884e-09	0.0009246	0.00138	0.0015456	1	0	1	-360	360;
	125908430	125908437	0.00153413798	0.000467062073	-2.62549884e-09	0.0009246	0.00138	0.0015456	1	0	1	-360	360;
	125908521	125908535	0.00304414412	0.000926777304	-2.62549884e-09	0.0009246	0.00138	0.0015456	1	0	1	-360	360;
	125908556	125908563	0.00054331828	0.000607702069	-2.62549884e-09	0.0006624	0.0013662	0.0015318	1	0	1	-360	360;
	125908605	125908619	0.00150221911	0.000457344502	-2.62549884e-09	0.0009246	0.00138	0.0015456	1	0	1	-360	360;
	125908465	125908500	2.62549884e-07	2.62549884e-07	-2.62549884e-09	6	8	10	1	0	1	-360	360;
	125908640	125908703	0.000638087194	0.0007137012	-2.62549884e-09	0.0006624	0.0013662	0.0015318	1	0	1	-360	360;
	125908584	125908731	2.62549884e-07	2.62549884e-07	-2.62549884e-09	6	8	10	1	0	1	-360	360;
	125908878	125908885	0.00048656259	0.000544220771	-2.62549884e-09	0.0006624	0.0013662	0.0015318	1	0	1	-360	360;
	125908948	125908969	2.62549884e-07	2.62549884e-07	-2.62549884e-09	6	8	10	1	0	1	-360	360;
	125908983	125908990	0.00901285127	0.00274392593	-2.62549884e-09	0.0009246	0.00138	0.0015456	1	0	1	-360	360;
	125909004	125909011	0.000719803159	0.000219141146	-2.62549884e-09	0.0009246	0.00138	0.0015456	1	0	1	-360	360;
	125909067	125909074	0.00182405329	0.000555325609	-2.62549884e-09	0.0009246	0.00138	0.0015456	1	0	1	-360	360;
	125909081	125909088	0.00115778912	0.000352484192	-2.62549884e-09	0.0009246	0.00138	0.0015456	1	0	1	-360	360;
	125909158	125909165	0.00161199308	0.000490764742	-2.62549884e-09	0.0009246	0.00138	0.0015456	1	0	1	-360	360;
	125909172	125909179	0.00227391399	0.00069228387	-2.62549884e-09	0.0009246	0.00138	0.0015456	1	0	1	-360	360;
	125909186	125909193	0.00174818169	0.000532226809	-2.62549884e-09	0.0009246	0.00138	0.0015456	1	0	1	-360	360;
	125909130	125909214	2.62549884e-07	2.62549884e-07	-2.62549884e-09	6	8	10	1	0	1	-360	360;
	125909018	125909333	2.62549884e-07	2.62549884e-07	-2.62549884e-09	6	8	10	1	0	1	-360	360;
	125909634	125909641	0.00690531879	0.00210229624	-2.62549884e-09	0.0009246	0.00138	0.0015456	1	0	1	-360	360;
	125909641	125909648	0.00266165628	0.000810330437	-2.62549884e-09	0.0009246	0.00138	0.0015456	1	0	1	-360	360;
	125909662	125909669	0.00185086278	0.000563487649	-2.62549884e-09	0.0009246	0.00138	0.0015456	1	0	1	-360	360;
	125909865	125909872	0.00131486091	0.00040030406	-2.62549884e-09	0.0009246	0.00138	0.0015456	1	0	1	-360	360;
	125910089	125910096	0.00125945509	0.000383435981	-2.62549884e-09	0.0009246	0.00138	0.0015456	1	0	1	-360	360;
	125910173	125910187	0.0111616762	0.00339812696	-2.62549884e-09	0.0009246	0.00138	0.0015456	1	0	1	-360	360;
	125910166	125910194	2.62549884e-07	2.62549884e-07	-2.62549884e-09	6	8	10	1	0	1	-360	360;
	125910285	125910292	0.000790064011	0.000240531777	-2.62549884e-09	0.0009246	0.00138	0.0015456	1	0	1	-360	360;
	125910292	125910306	0.00169677506	0.00051657627	-2.62549884e-09	0.0009246	0.00138	0.0015456	1	0	1	-360	360;
	125910313	125910320	0.00197673696	0.000601809532	-2.62549884e-09	0.0009246	0.00138	0.0015456	1	0	1	-360	360;
	125910320	125910327	0.00101071998	0.00030770959	-2.62549884e-09	0.0009246	0.00138	0.0015456	1	0	1	-360	360;
	125910376	125910383	0.00028943133	8.81161921e-05	-2.62549884e-09	0.0009246	0.00138	0.0015456	1	0	1	-360	360;
	125900072	125900079	0.0017451492	0.00195195122	-2.62549884e-09	0.0006624	0.0013662	0.0015318	1	0	1	-360	360;
	125900051	125900072	2.62549884e-07	2.62549884e-07	-2.62549884e-09	6	8	10	1	0	1	-360	360;
	125900289	125900296	0.000592733032	0.000398130642	-2.62549884e-09	0.001656	0.002484	0.0027738	1	0	1	-360	360;
	125907527	125907541	0.00017320176	0.000116337245	-2.62549884e-09	0.001656	0.002484	0.0027738	1	0	1	-360	360;
	125907555	125907590	2.36704848e-05	1.58991398e-05	-2.62549884e-09	0.001656	0.002484	0.0027738	1	0	1	-360	360;
	125907590	125907597	0.000180147411	0.000121002543	-2.62549884e-09	0.001656	0.002484	0.0027738	1	0	1	-360	360;
	125907653	125907660	0.000232452136	0.00015613491	-2.62549884e-09	0.001656	0.002484	0.0027738	1	0	1	-360	360;
	125907968	125907975	0.000743852048	0.0008319993	-2.62549884e-09	0.0006624	0.0013662	0.0015318	1	0	1	-360	360;
	125908339	125908346	0.00151062072	0.000459902339	-2.62549884e-09	0.0009246	0.00138	0.0015456	1	0	1	-360	360;
	125908395	125908409	0.000134767141	5.92736307e-05	-2.62549884e-09	0.0012282	0.0018492	0.0020562	1	0	1	-360	360;
	125908416	125908430	0.00661108873	0.00201271909	-2.62549884e-09	0.0009246	0.00138	0.0015456	1	0	1	-360	360;
	125908430	125908444	0.00112804946	0.000343430071	-2.62549884e-09	0.0009246	0.00138	0.0015456	1	0	1	-360	360;
	125908507	125908514	0.00117658936	0.000358207849	-2.62549884e-09	0.0009246	0.00138	0.0015456	1	0	1	-360	360;
	125908591	125908605	0.00319110951	0.000971520319	-2.62549884e-09	0.0009246	0.00138	0.0015456	1	0	1	-360	360;
	125908633	125908647	0.00616601686	0.00187721877	-2.62549884e-09	0.0009246	0.00138	0.0015456	1	0	1	-360	360;
	125908661	125908668	0.000858980402	0.000261513092	-2.62549884e-09	0.0009246	0.00138	0.0015456	1	0	1	-360	360;
	125908668	125908682	0.00110832596	0.000337425333	-2.62549884e-09	0.0009246	0.00138	0.0015456	1	0	1	-360	360;
	125908738	125908752	0.00831843462	0.00253251361	-2.62549884e-09	0.0009246	0.00138	0.0015456	1	0	1	-360	360;
	125908815	125908927	2.62549884e-07	2.62549884e-07	-2.62549884e-09	6	8	10	1	0	1	-360	360;
	125908948	125908955	0.000843654235	0.000256847103	-2.62549884e-09	0.0009246	0.00138	0.0015456	1	0	1	-360	360;
	125908955	125908962	0.00038941567	0.000435561838	-2.62549884e-09	0.0006624	0.0013662	0.0015318	1	0	1	-360	360;
	125909004	125909018	0.00356068544	0.00108403621	-2.62549884e-09	0.0009246	0.00138	0.0015456	1	0	1	-360	360;
	125908444	125908983	2.62549884e-07	2.62549884e-07	-2.62549884e-09	6	8	10	1	0	1	-360	360;
	125909039	125909053	0.00722412042	0.0021993541	-2.62549884e-09	0.0009246	0.00138	0.0015456	1	0	1	-360	360;
	125909102	125909123	0.0023101453	0.000703314345	-2.62549884e-09	0.0009246	0.00138	0.0015456	1	0	1	-360	360;
	125909130	125909144	0.00374200204	0.00113923731	-2.62549884e-09	0.0009246	0.00138	0.0015456	1	0	1	-360	360;
	125909186	125909200	0.00126014026	0.00140946821	-2.62549884e-09	0.0006624	0.0013662	0.0015318	1	0	1	-360	360;
	125909095	125909242	2.62549884e-07	2.62549884e-07	-2.62549884e-09	6	8	10	1	0	1	-360	360;
	125909368	125909375	0.000262915777	0.000294071574	-2.62549884e-09	0.0006624	0.0013662	0.0015318	1	0	1	-360	360;
	125909424	125909431	0.0146276886	0.00445334034	-2.62549884e-09	0.0009246	0.00138	0.0015456	1	0	1	-360	360;
	125909515	125909599	2.62549884e-07	2.62549884e-07	-2.62549884e-09	6	8	10	1	0	1	-360	360;
	125909676	125909683	0.0115204674	0.00350735946	-2.62549884e-09	0.0009246	0.00138	0.0015456	1	0	1	-360	360;
	125909823	125909830	0.00648402429	0.00197403484	-2.62549884e-09	0.0009246	0.00138	0.0015456	1	0	1	-360	360;
	125909858	125909865	0.00932140021	0.0028378624	-2.62549884e-09	0.0009246	0.00138	0.0015456	1	0	1	-360	360;
	125909977	125909984	0.000444482685	0.000135320947	-2.62549884e-09	0.0009246	0.00138	0.0015456	1	0	1	-360	360;
	125910089	125910103	0.00228969761	0.000697089129	-2.62549884e-09	0.0009246	0.00138	0.0015456	1	0	1	-360	360;
	125909725	125910082	2.62549884e-07	2.62549884e-07	-2.62549884e-09	6	8	10	1	0	1	-360	360;
	125909655	125910159	2.62549884e-07	2.62549884e-07	-2.62549884e-09	6	8	10	1	0	1	-360	360;
	125910222	125910229	0.000353448595	0.000395332627	-2.62549884e-09	0.0006624	0.0013662	0.0015318	1	0	1	-360	360;
	125910292	125910299	0.001486664	0.000452608813	-2.62549884e-09	0.0009246	0.00138	0.0015456	1	0	1	-360	360;
	125907569	125907576	0.000962279726	0.000423232345	-2.62549884e-09	0.0012282	0.0018492	0.0020562	1	0	1	-360	360;
	125907772	125907779	0.000164579409	0.00011054573	-2.62549884e-09	0.001656	0.002484	0.0027738	1	0	1	-360	360;
	125907793	125907814	0.00127372224	0.00142465967	-2.62549884e-09	0.0006624	0.0013662	0.0015318	1	0	1	-360	360;
	125907982	125907996	0.000473826544	0.000529975489	-2.62549884e-09	0.0006624	0.0013662	0.0015318	1	0	1	-360	360;
	125908017	125908031	1.70690257e-05	1.14650303e-05	-2.62549884e-09	0.001656	0.002484	0.0027738	1	0	1	-360	360;
	125908052	125908059	0.0010446866	0.000459476746	-2.62549884e-09	0.0012282	0.0018492	0.0020562	1	0	1	-360	360;
	125908059	125908066	0.000586586894	0.000257994157	-2.62549884e-09	0.0012282	0.0018492	0.0020562	1	0	1	-360	360;
	125908234	125908262	2.62549884e-07	2.62549884e-07	-2.62549884e-09	6	8	10	1	0	1	-360	360;
	125908346	125908353	0.00776288869	0.00236337991	-2.62549884e-09	0.0009246	0.00138	0.0015456	1	0	1	-360	360;
	125908381	125908388	0.00112475878	0.000342428237	-2.62549884e-09	0.0009246	0.00138	0.0015456	1	0	1	-360	360;
	125908437	125908451	0.000477872632	0.000534501043	-2.62549884e-09	0.0006624	0.0013662	0.0015318	1	0	1	-360	360;
	125908535	125908549	0.00268415911	0.00081718133	-2.62549884e-09	0.0009246	0.00138	0.0015456	1	0	1	-360	360;
	125908584	125908591	0.00466557116	0.00142041418	-2.62549884e-09	0.0009246	0.00138	0.0015456	1	0	1	-360	360;
	125908619	125908626	2.62549884e-07	2.62549884e-07	-2.62549884e-09	6	8	10	1	0	1	-360	360;
	125908927	125908934	0.00979214246	0.00298117797	-2.62549884e-09	0.0009246	0.00138	0.0015456	1	0	1	-360	360;
	125908766	125908941	2.62549884e-07	2.62549884e-07	-2.62549884e-09	6	8	10	1	0	1	-360	360;
	125908997	125909004	0.00821035321	0.00249960866	-2.62549884e-09	0.0009246	0.00138	0.0015456	1	0	1	-360	360;
	125909081	125909095	0.0106724952	0.00324919778	-2.62549884e-09	0.0009246	0.00138	0.0015456	1	0	1	-360	360;
	125909256	125909263	0.00464709931	0.00141479049	-2.62549884e-09	0.0009246	0.00138	0.0015456	1	0	1	-360	360;
	125909277	125909291	0.0066848351	0.00203517088	-2.62549884e-09	0.0009246	0.00138	0.0015456	1	0	1	-360	360;
	125908367	125909424	2.62549884e-07	2.62549884e-07	-2.62549884e-09	6	8	10	1	0	1	-360	360;
	125909438	125909445	0.00460216452	0.00140111028	-2.62549884e-09	0.0009246	0.00138	0.0015456	1	0	1	-360	360;
	125909578	125909592	0.00126874095	0.000386263025	-2.62549884e-09	0.0009246	0.00138	0.0015456	1	0	1	-360	360;
	125909599	125909606	0.00857733106	0.00261133358	-2.62549884e-09	0.0009246	0.00138	0.0015456	1	0	1	-360	360;
	125909641	125909655	0.0085105658	0.00259100717	-2.62549884e-09	0.0009246	0.00138	0.0015456	1	0	1	-360	360;
	125909865	125909879	0.00181190303	0.000551626511	-2.62549884e-09	0.0009246	0.00138	0.0015456	1	0	1	-360	360;
	125909900	125909907	0.000474034832	0.000530208459	-2.62549884e-09	0.0006624	0.0013662	0.0015318	1	0	1	-360	360;
	125909998	125910005	0.000441810765	0.000494165807	-2.62549884e-09	0.0006624	0.0013662	0.0015318	1	0	1	-360	360;
	125909949	125909977	2.62549884e-07	2.62549884e-07	-2.62549884e-09	6	8	10	1	0	1	-360	360;
	125910019	125910047	2.62549884e-07	2.62549884e-07	-2.62549884e-09	6	8	10	1	0	1	-360	360;
	125909746	125910061	2.62549884e-07	2.62549884e-07	-2.62549884e-09	6	8	10	1	0	1	-360	360;
	125910103	125910110	0.000333744237	0.000146788249	-2.62549884e-09	0.0012282	0.0018492	0.0020562	1	0	1	-360	360;
	125910173	125910180	0.000608945008	0.000185390833	-2.62549884e-09	0.0009246	0.00138	0.0015456	1	0	1	-360	360;
	125909501	125910313	2.62549884e-07	2.62549884e-07	-2.62549884e-09	6	8	10	1	0	1	-360	360;
	125910362	125910376	0.00757487363	0.00230613949	-2.62549884e-09	0.0009246	0.00138	0.0015456	1	0	1	-360	360;
	125910397	125910418	0.00214466578	0.000652934779	-2.62549884e-09	0.0009246	0.00138	0.0015456	1	0	1	-360	360;
	125908297	125910502	2.62549884e-07	2.62549884e-07	-2.62549884e-09	6	8	10	1	0	1	-360	360;
	125910551	125910558	0.0012468249	0.000379590773	-2.62549884e-09	0.0009246	0.00138	0.0015456	1	0	1	-360	360;
	125910565	125910572	0.00414611275	0.00126226717	-2.62549884e-09	0.0009246	0.00138	0.0015456	1	0	1	-360	360;
	125910607	125910614	0.000480712241	0.000537677148	-2.62549884e-09	0.0006624	0.0013662	0.0015318	1	0	1	-360	360;
	125900016	125900282	2.62549884e-07	2.62549884e-07	-2.62549884e-09	6	8	10	1	0	1	-360	360;
	125907569	125907583	0.000181128099	0.000202591969	-2.62549884e-09	0.0006624	0.0013662	0.0015318	1	0	1	-360	360;
	125907590	125907604	2.84046018e-05	1.90789812e-05	-2.62549884e-09	0.001656	0.002484	0.0027738	1	0	1	-360	360;
	125907625	125907632	0.000685453899	0.000460409976	-2.62549884e-09	0.001656	0.002484	0.0027738	1	0	1	-360	360;
	125907779	125907800	0.000133603961	5.87620377e-05	-2.62549884e-09	0.0012282	0.0018492	0.0020562	1	0	1	-360	360;
	125907975	125907989	0.00101293835	0.00113297261	-2.62549884e-09	0.0006624	0.0013662	0.0015318	1	0	1	-360	360;
	125908017	85574472	0.000150386464	0.000101012524	-2.62549884e-09	0.001656	0.002484	0.0027738	1	0	1	-360	360;
	125908073	125908080	0.000113941604	5.01140894e-05	-2.62549884e-09	0.0012282	0.0018492	0.0020562	1	0	1	-360	360;
	125908276	125908297	0.0177801945	0.00541310794	-2.62549884e-09	0.0009246	0.00138	0.0015456	1	0	1	-360	360;
	125908304	125908311	0.00714693647	0.00217585576	-2.62549884e-09	0.0009246	0.00138	0.0015456	1	0	1	-360	360;
	125908367	125908374	0.00416412397	0.00126775062	-2.62549884e-09	0.0009246	0.00138	0.0015456	1	0	1	-360	360;
	125908626	125908633	0.00112998646	0.000344019785	-2.62549884e-09	0.0009246	0.00138	0.0015456	1	0	1	-360	360;
	125908661	125908675	0.00114399367	0.00127955813	-2.62549884e-09	0.0006624	0.0013662	0.0015318	1	0	1	-360	360;
	125908969	125908976	0.0142038493	0.00432430419	-2.62549884e-09	0.0009246	0.00138	0.0015456	1	0	1	-360	360;
	125909053	125909060	0.00821703824	0.00250164389	-2.62549884e-09	0.0009246	0.00138	0.0015456	1	0	1	-360	360;
	125909074	125909081	0.00410296817	0.00124913198	-2.62549884e-09	0.0009246	0.00138	0.0015456	1	0	1	-360	360;
	125909109	125909151	0.0022825429	0.000694910909	-2.62549884e-09	0.0009246	0.00138	0.0015456	1	0	1	-360	360;
	125909123	125909137	0.0019305228	0.00058773982	-2.62549884e-09	0.0009246	0.00138	0.0015456	1	0	1	-360	360;
	125909165	125909172	0.00417666237	0.00127156788	-2.62549884e-09	0.0009246	0.00138	0.0015456	1	0	1	-360	360;
	125909270	125909277	0.00696097078	0.00211923926	-2.62549884e-09	0.0009246	0.00138	0.0015456	1	0	1	-360	360;
	125909284	125909312	0.000615050913	0.000687935094	-2.62549884e-09	0.0006624	0.0013662	0.0015318	1	0	1	-360	360;
	125909396	125909403	0.00338571944	0.00103076852	-2.62549884e-09	0.0009246	0.00138	0.0015456	1	0	1	-360	360;
	125908402	125909396	2.62549884e-07	2.62549884e-07	-2.62549884e-09	6	8	10	1	0	1	-360	360;
	125909536	125909543	0.00375742214	0.0011439319	-2.62549884e-09	0.0009246	0.00138	0.0015456	1	0	1	-360	360;
	125909557	125909564	0.0104926914	0.00319445724	-2.62549884e-09	0.0009246	0.00138	0.0015456	1	0	1	-360	360;
	125909690	125909704	0.00348606471	0.00106131823	-2.62549884e-09	0.0009246	0.00138	0.0015456	1	0	1	-360	360;
	125909690	125909697	0.00113656067	0.000346021277	-2.62549884e-09	0.0009246	0.00138	0.0015456	1	0	1	-360	360;
	125909620	125909627	2.62549884e-07	2.62549884e-07	-2.62549884e-09	6	8	10	1	0	1	-360	360;
	125909837	125909851	0.0138669876	0.004221748	-2.62549884e-09	0.0009246	0.00138	0.0015456	1	0	1	-360	360;
	125910012	125910019	0.00353515514	0.00107626361	-2.62549884e-09	0.0009246	0.00138	0.0015456	1	0	1	-360	360;
	125910026	125910040	0.00119612673	0.00133786901	-2.62549884e-09	0.0006624	0.0013662	0.0015318	1	0	1	-360	360;
	125909683	125910131	2.62549884e-07	2.62549884e-07	-2.62549884e-09	6	8	10	1	0	1	-360	360;
	125910159	125910166	0.0022601205	0.000688084499	-2.62549884e-09	0.0009246	0.00138	0.0015456	1	0	1	-360	360;
	125910250	125910278	2.62549884e-07	2.62549884e-07	-2.62549884e-09	6	8	10	1	0	1	-360	360;
	125910579	125910586	0.000693030582	0.000775155437	-2.62549884e-09	0.0006624	0.0013662	0.0015318	1	0	1	-360	360;
	125908213	125910656	2.62549884e-07	2.62549884e-07	-2.62549884e-09	6	8	10	1	0	1	-360	360;
	125912070	125912077	0.00224027104	0.00068204141	-2.62549884e-09	0.0009246	0.00138	0.0015456	1	0	1	-360	360;
	125912098	125912105	0.00205653698	0.000626104326	-2.62549884e-09	0.0009246	0.00138	0.0015456	1	0	1	-360	360;
	125912140	125912154	0.00412666745	0.00125634713	-2.62549884e-09	0.0009246	0.00138	0.0015456	1	0	1	-360	360;
	125910887	125912063	2.62549884e-07	2.62549884e-07	-2.62549884e-09	6	8	10	1	0	1	-360	360;
	125900282	125900289	0.000298940501	0.000200794231	-2.62549884e-09	0.001656	0.002484	0.0027738	1	0	1	-360	360;
...
];

%%-----  OPF Data  -----%%
%% generator cost data
%	1	startup	shutdown	n	x1	y1	...	xn	yn
%	2	startup	shutdown	n	c(n-1)	...	c0
mpc.gencost = [
	2	0	0	3	0.25	20	0;
];
